<NUMBER OF ZONES> 36												
<NUMBER OF NODES> 398												
<FIRST THRU NODE> 37												
<NUMBER OF LINKS> 871												
<ORIGINAL HEADER>~ 	Init node 	Term node 	Capacity 	Length 	Free Flow Time 	B 	Power 	Speed limit 	Toll 			
<END OF METADATA> 												
												
												
~	init_node	term_node	capacity	length	free_flow_time	b	power	speed	toll	type	cost	;
 	1	303	999999	0	0	0	4	0	0	0	0	; 
 	1	304	999999	0	0	0	4	0	0	0	0	; 
 	1	306	999999	0	0	0	4	0	0	0	0	; 
 	1	307	999999	0	0	0	4	0	0	0	0	; 
 	2	253	999999	0	0	0	4	0	0	0	0	; 
 	2	255	999999	0	0	0	4	0	0	0	0	; 
 	2	256	999999	0	0	0	4	0	0	0	0	; 
 	2	272	999999	0	0	0	4	0	0	0	0	; 
 	3	258	999999	0	0	0	4	0	0	0	0	; 
 	3	259	999999	0	0	0	4	0	0	0	0	; 
 	3	260	999999	0	0	0	4	0	0	0	0	; 
 	3	261	999999	0	0	0	4	0	0	0	0	; 
 	4	226	999999	0	0	0	4	0	0	0	0	; 
 	4	231	999999	0	0	0	4	0	0	0	0	; 
 	4	232	999999	0	0	0	4	0	0	0	0	; 
 	4	263	999999	0	0	0	4	0	0	0	0	; 
 	5	254	999999	0	0	0	4	0	0	0	0	; 
 	5	255	999999	0	0	0	4	0	0	0	0	; 
 	5	352	999999	0	0	0	4	0	0	0	0	; 
 	5	353	999999	0	0	0	4	0	0	0	0	; 
 	6	196	999999	0	0	0	4	0	0	0	0	; 
 	6	223	999999	0	0	0	4	0	0	0	0	; 
 	6	264	999999	0	0	0	4	0	0	0	0	; 
 	6	295	999999	0	0	0	4	0	0	0	0	; 
 	7	50	999999	0	0	0	4	0	0	0	0	; 
 	7	51	999999	0	0	0	4	0	0	0	0	; 
 	7	55	999999	0	0	0	4	0	0	0	0	; 
 	7	59	999999	0	0	0	4	0	0	0	0	; 
 	8	359	999999	0	0	0	4	0	0	0	0	; 
 	8	360	999999	0	0	0	4	0	0	0	0	; 
 	8	361	999999	0	0	0	4	0	0	0	0	; 
 	8	364	999999	0	0	0	4	0	0	0	0	; 
 	9	158	999999	0	0	0	4	0	0	0	0	; 
 	9	168	999999	0	0	0	4	0	0	0	0	; 
 	9	176	999999	0	0	0	4	0	0	0	2.534510157	; 
 	9	362	999999	0	0	0	4	0	0	0	0	; 
 	10	140	999999	0	0	0	4	0	0	0	0	; 
 	10	142	999999	0	0	0	4	0	0	0	0	; 
 	10	144	999999	0	0	0	4	0	0	0	0	; 
 	10	146	999999	0	0	0	4	0	0	0	0	; 
 	11	63	999999	0	0	0	4	0	0	0	0	; 
 	11	275	999999	0	0	0	4	0	0	0	0	; 
 	11	279	999999	0	0	0	4	0	0	0	0	; 
 	11	283	999999	0	0	0	4	0	0	0	0	; 
 	12	112	999999	0	0	0	4	0	0	0	0	; 
 	12	114	999999	0	0	0	4	0	0	0	0	; 
 	12	120	999999	0	0	0	4	0	0	0	0	; 
 	12	121	999999	0	0	0	4	0	0	0	0	; 
 	13	166	999999	0	0	0	4	0	0	0	0	; 
 	13	201	999999	0	0	0	4	0	0	0	0	; 
 	13	203	999999	0	0	0	4	0	0	0	0	; 
 	13	398	999999	0	0	0	4	0	0	0	0	; 
 	14	128	999999	0	0	0	4	0	0	0	0	; 
 	14	129	999999	0	0	0	4	0	0	0	0	; 
 	14	130	999999	0	0	0	4	0	0	0	0	; 
 	14	133	999999	0	0	0	4	0	0	0	0	; 
 	15	165	999999	0	0	0	4	0	0	0	0	; 
 	15	175	999999	0	0	0	4	0	0	0	0	; 
 	15	177	999999	0	0	0	4	0	0	0	0	; 
 	15	191	999999	0	0	0	4	0	0	0	0	; 
 	16	75	999999	0	0	0	4	0	0	0	0	; 
 	16	241	999999	0	0	0	4	0	0	0	0	; 
 	16	246	999999	0	0	0	4	0	0	0	0	; 
 	16	317	999999	0	0	0	4	0	0	0	0	; 
 	17	70	999999	0	0	0	4	0	0	0	0	; 
 	17	251	999999	0	0	0	4	0	0	0	0	; 
 	17	270	999999	0	0	0	4	0	0	0	0	; 
 	17	273	999999	0	0	0	4	0	0	0	0	; 
 	18	70	999999	0	0	0	4	0	0	0	0	; 
 	18	73	999999	0	0	0	4	0	0	0	0	; 
 	18	75	999999	0	0	0	4	0	0	0	0	; 
 	18	241	999999	0	0	0	4	0	0	0	0	; 
 	19	287	999999	0	0	0	4	0	0	0	0	; 
 	19	291	999999	0	0	0	4	0	0	0	0	; 
 	19	292	999999	0	0	0	4	0	0	0	0	; 
 	19	357	999999	0	0	0	4	0	0	0	0	; 
 	20	217	999999	0	0	0	4	0	0	0	0	; 
 	20	220	999999	0	0	0	4	0	0	0	0	; 
 	20	221	999999	0	0	0	4	0	0	0	0	; 
 	20	238	999999	0	0	0	4	0	0	0	0	; 
 	21	312	999999	0	0	0	4	0	0	0	0	; 
 	21	372	999999	0	0	0	4	0	0	0	0	; 
 	21	373	999999	0	0	0	4	0	0	0	0	; 
 	21	375	999999	0	0	0	4	0	0	0	0	; 
 	22	228	999999	0	0	0	4	0	0	0	2.556479328	; 
 	22	285	999999	0	0	0	4	0	0	0	0	; 
 	22	286	999999	0	0	0	4	0	0	0	0	; 
 	22	287	999999	0	0	0	4	0	0	0	0	; 
 	23	222	999999	0	0	0	4	0	0	0	0	; 
 	23	224	999999	0	0	0	4	0	0	0	0	; 
 	23	226	999999	0	0	0	4	0	0	0	0	; 
 	23	231	999999	0	0	0	4	0	0	0	0	; 
 	24	317	999999	0	0	0	4	0	0	0	0	; 
 	24	379	999999	0	0	0	4	0	0	0	0	; 
 	24	383	999999	0	0	0	4	0	0	0	0	; 
 	24	385	999999	0	0	0	4	0	0	0	0	; 
 	25	315	999999	0	0	0	4	0	0	0	0	; 
 	25	331	999999	0	0	0	4	0	0	0	0	; 
 	25	332	999999	0	0	0	4	0	0	0	0	; 
 	25	334	999999	0	0	0	4	0	0	0	0	; 
 	26	327	999999	0	0	0	4	0	0	0	0	; 
 	26	328	999999	0	0	0	4	0	0	0	0	; 
 	26	332	999999	0	0	0	4	0	0	0	0	; 
 	26	335	999999	0	0	0	4	0	0	0	2.002073345	; 
 	27	68	999999	0	0	0	4	0	0	0	0	; 
 	27	78	999999	0	0	0	4	0	0	0	0	; 
 	27	276	999999	0	0	0	4	0	0	0	0	; 
 	27	280	999999	0	0	0	4	0	0	0	0	; 
 	28	210	999999	0	0	0	4	0	0	0	0	; 
 	28	213	999999	0	0	0	4	0	0	0	0	; 
 	28	214	999999	0	0	0	4	0	0	0	0	; 
 	28	215	999999	0	0	0	4	0	0	0	0	; 
 	29	46	999999	0	0	0	4	0	0	0	0	; 
 	29	155	999999	0	0	0	4	0	0	0	0	; 
 	29	156	999999	0	0	0	4	0	0	0	0	; 
 	29	157	999999	0	0	0	4	0	0	0	0	; 
 	30	134	999999	0	0	0	4	0	0	0	0	; 
 	30	154	999999	0	0	0	4	0	0	0	0	; 
 	30	156	999999	0	0	0	4	0	0	0	0	; 
 	30	389	999999	0	0	0	4	0	0	0	0	; 
 	31	266	999999	0	0	0	4	0	0	0	0	; 
 	31	267	999999	0	0	0	4	0	0	0	0	; 
 	31	268	999999	0	0	0	4	0	0	0	0	; 
 	31	269	999999	0	0	0	4	0	0	0	0	; 
 	32	79	999999	0	0	0	4	0	0	0	0	; 
 	32	240	999999	0	0	0	4	0	0	0	0	; 
 	32	244	999999	0	0	0	4	0	0	0	0	; 
 	32	270	999999	0	0	0	4	0	0	0	0	; 
 	33	40	999999	0	0	0	4	0	0	0	0	; 
 	33	267	999999	0	0	0	4	0	0	0	2.190038716	; 
 	33	268	999999	0	0	0	4	0	0	0	0	; 
 	33	390	999999	0	0	0	4	0	0	0	0	; 
 	34	89	999999	0	0	0	4	0	0	0	0	; 
 	34	90	999999	0	0	0	4	0	0	0	0	; 
 	34	98	999999	0	0	0	4	0	0	0	0	; 
 	34	102	999999	0	0	0	4	0	0	0	2.848487213	; 
 	35	147	999999	0	0	0	4	0	0	0	0	; 
 	35	148	999999	0	0	0	4	0	0	0	0	; 
 	35	149	999999	0	0	0	4	0	0	0	0	; 
 	35	150	999999	0	0	0	4	0	0	0	0	; 
 	36	240	999999	0	0	0	4	0	0	0	0	; 
 	36	247	999999	0	0	0	4	0	0	0	0	; 
 	36	268	999999	0	0	0	4	0	0	0	0	; 
 	36	354	999999	0	0	0	4	0	0	0	0	; 
 	37	38	2400	1	0.333333	1	4	0	0	0	0	; 
 	37	375	2400	142	4.666667	1	4	0	0	0	0	; 
 	38	37	2400	1	0.333333	1	4	0	0	0	0	; 
 	40	33	999999	0	0	0	4	0	0	0	0	; 
 	40	390	2400	24	0.666667	1	4	0	0	0	0	; 
 	41	101	600	315	8	1	4	0	0	0	0	; 
 	41	113	600	240	6	1	4	0	0	0	0	; 
 	42	41	600	196	5	1	4	0	0	0	0	; 
 	44	46	2800	44	1.333333	1	4	0	0	0	0	; 
 	44	47	2800	320	18.333333	1	4	0	0	0	1.061270548	; 
 	45	46	2800	321	19.333333	1	4	0	0	0	0	; 
 	45	47	2800	39	1.333333	1	4	0	0	0	0	; 
 	46	29	999999	0	0	0	4	0	0	0	0	; 
 	46	49	2800	35	1.333333	1	4	0	0	0	0	; 
 	46	212	2800	82	2	1	4	0	0	0	0	; 
 	47	66	2800	23	0.666667	1	4	0	0	0	0	; 
 	48	44	2800	37	1.666667	1	4	0	0	0	0	; 
 	49	48	2800	43	5.333333	1	4	0	0	0	0	; 
 	49	157	2400	251	6.333333	1	4	0	0	0	0	; 
 	50	7	999999	0	0	0	4	0	0	0	0	; 
 	50	51	2800	126	9	1	4	0	0	0	0	; 
 	51	7	999999	0	0	0	4	0	0	0	0	; 
 	51	54	2400	30	1	1	4	0	0	0	0	; 
 	51	58	2800	51	1.666667	1	4	0	0	0	0	; 
 	51	196	2400	194	9.333333	1	4	0	0	0	0	; 
 	52	54	2800	92	7.666667	1	4	0	0	0	0	; 
 	52	163	900	125	4.666667	1	4	0	0	0	0	; 
 	53	50	2800	114	3.333333	1	4	0	0	0	0	; 
 	54	51	2800	30	1.666667	1	4	0	0	0	0	; 
 	54	55	2800	103	3.666667	1	4	0	0	0	0	; 
 	54	163	900	105	3	1	4	0	0	0	0	; 
 	55	7	999999	0	0	0	4	0	0	0	0	; 
 	55	59	2800	139	3.333333	1	4	0	0	0	0	; 
 	56	53	2800	46	1	1	4	0	0	0	0	; 
 	57	64	2800	272	9.666667	1	4	0	0	0	0	; 
 	58	57	2800	64	1.666667	1	4	0	0	0	0	; 
 	59	7	999999	0	0	0	4	0	0	0	0	; 
 	59	60	2800	48	1	1	4	0	0	0	0	; 
 	60	61	2800	56	1.333333	1	4	0	0	0	0	; 
 	60	394	2800	161	3.666667	1	4	0	0	0	0	; 
 	61	172	600	140	4	1	4	0	0	0	0	; 
 	61	393	2800	106	2.666667	1	4	0	0	0	0	; 
 	62	56	2800	132	2.666667	1	4	0	0	0	0	; 
 	63	11	999999	0	0	0	4	0	0	0	0	; 
 	63	52	2800	301	12	1	4	0	0	0	0	; 
 	63	64	2800	23	0.666667	1	4	0	0	0	0	; 
 	63	348	900	90	2.666667	1	4	0	0	0	0	; 
 	64	65	2800	16	0.666667	1	4	0	0	0	0	; 
 	64	279	900	339	8.666667	1	4	0	0	0	0	; 
 	65	63	2800	19	1.333333	1	4	0	0	0	0	; 
 	65	351	2800	115	3.333333	1	4	0	0	0	0	; 
 	66	67	2800	36	1.666667	1	4	0	0	0	0	; 
 	66	193	2400	280	8.666667	1	4	0	0	0	0	; 
 	67	45	2800	22	0.666667	1	4	0	0	0	0	; 
 	67	369	2800	43	1	1	4	0	0	0	0	; 
 	68	27	999999	0	0	0	4	0	0	0	0	; 
 	68	100	600	262	10.666667	1	4	0	0	0	0	; 
 	69	314	2800	133	8	1	4	0	0	0	0	; 
 	70	17	999999	0	0	0	4	0	0	0	0	; 
 	70	18	999999	0	0	0	4	0	0	0	0	; 
 	70	73	900	103	4	1	4	0	0	0	0	; 
 	70	245	900	77	2	1	4	0	0	0	0	; 
 	71	243	900	189	5	1	4	0	0	0	0	; 
 	72	39	900	304	7.333333	1	4	0	0	0	0	; 
 	73	18	999999	0	0	0	4	0	0	0	0	; 
 	73	75	900	348	14.666667	1	4	0	0	0	0	; 
 	74	96	2400	568	30.333333	1	4	0	0	0	0	; 
 	75	16	999999	0	0	0	4	0	0	0	0	; 
 	75	18	999999	0	0	0	4	0	0	0	0	; 
 	75	70	900	451	11.333333	1	4	0	0	0	0	; 
 	75	317	900	445	11	1	4	0	0	0	0	; 
 	76	79	900	178	15.333333	1	4	0	0	0	0	; 
 	77	69	2800	137	7	1	4	0	0	0	0	; 
 	78	27	999999	0	0	0	4	0	0	0	0	; 
 	78	68	600	253	7	1	4	0	0	0	0	; 
 	78	104	600	236	6	1	4	0	0	0	0	; 
 	78	280	600	85	2.666667	1	4	0	0	0	0	; 
 	79	32	999999	0	0	0	4	0	0	0	0	; 
 	79	81	2400	90	6.666667	1	4	0	0	0	0	; 
 	79	251	900	463	14	1	4	0	0	0	0	; 
 	79	273	2400	285	12	1	4	0	0	0	0	; 
 	79	352	2400	310	10	1	4	0	0	0	0	; 
 	80	76	900	457	14.666667	1	4	0	0	0	0	; 
 	80	82	900	34	1.333333	1	4	0	0	0	0	; 
 	80	243	900	66	3	1	4	0	0	0	0	; 
 	81	74	2400	277	18.333333	1	4	0	0	0	0	; 
 	81	79	2400	90	11.333333	1	4	0	0	0	0	; 
 	81	255	900	188	6.666667	1	4	0	0	0	0	; 
 	82	80	900	34	1	1	4	0	0	0	0	; 
 	82	229	900	43	1.333333	1	4	0	0	0	0	; 
 	83	97	2400	65	1.333333	1	4	0	0	0	0	; 
 	83	100	2400	96	12.333333	1	4	0	0	0	0	; 
 	83	344	600	198	15.333333	1	4	0	0	0	0	; 
 	84	85	2400	132	9.666667	1	4	0	0	0	0	; 
 	85	87	2400	197	15.333333	1	4	0	0	0	0	; 
 	85	91	2400	31	1.333333	1	4	0	0	0	0	; 
 	85	252	2400	301	6.333333	1	4	0	0	0	0	; 
 	86	87	600	31	1.333333	1	4	0	0	0	0	; 
 	86	91	2400	198	10.666667	1	4	0	0	0	0	; 
 	86	344	600	137	15.333333	1	4	0	0	0	0	; 
 	87	86	600	31	1.333333	1	4	0	0	0	0	; 
 	87	108	600	174	6.666667	1	4	0	0	0	0	; 
 	87	384	2400	216	6.666667	1	4	0	0	0	0	; 
 	88	85	2400	100	4.333333	1	4	0	0	0	0	; 
 	89	34	999999	0	0	0	4	0	0	0	0	; 
 	89	104	2400	86	2.666667	1	4	0	0	0	0	; 
 	90	34	999999	0	0	0	4	0	0	0	0	; 
 	90	94	2400	165	10.333333	1	4	0	0	0	0	; 
 	91	83	2400	137	8.666667	1	4	0	0	0	0	; 
 	91	85	2400	31	0.666667	1	4	0	0	0	0	; 
 	91	92	2400	128	4.666667	1	4	0	0	0	0	; 
 	92	95	2400	132	8.333333	1	4	0	0	0	0	; 
 	93	86	2400	131	13.333333	1	4	0	0	0	0	; 
 	94	84	2400	128	4	1	4	0	0	0	0	; 
 	94	95	900	38	1.666667	1	4	0	0	0	0	; 
 	94	98	900	192	9.666667	1	4	0	0	0	0	; 
 	95	89	2400	165	5	1	4	0	0	0	0	; 
 	95	94	900	38	2	1	4	0	0	0	0	; 
 	96	88	2400	75	4	1	4	0	0	0	1.689180706	; 
 	97	91	2400	72	1.666667	1	4	0	0	0	0	; 
 	98	34	999999	0	0	0	4	0	0	0	0	; 
 	98	250	900	342	17.333333	1	4	0	0	0	0	; 
 	99	100	2400	102	2	1	4	0	0	0	0	; 
 	100	83	2400	96	2	1	4	0	0	0	0	; 
 	100	106	600	130	4.333333	1	4	0	0	0	0	; 
 	100	320	2400	392	19	1	4	0	0	0	0	; 
 	100	343	600	201	9	1	4	0	0	0	0	; 
 	101	103	600	213	15	1	4	0	0	0	0	; 
 	101	392	600	122	3	1	4	0	0	0	0	; 
 	102	34	999999	0	0	0	4	0	0	0	0	; 
 	102	94	900	297	19	1	4	0	0	0	0	; 
 	103	101	600	213	5.333333	1	4	0	0	0	0	; 
 	103	117	900	38	1.666667	1	4	0	0	0	0	; 
 	103	137	900	78	2.333333	1	4	0	0	0	0	; 
 	104	281	2400	196	9	1	4	0	0	0	0	; 
 	105	78	600	202	5	1	4	0	0	0	0	; 
 	106	78	600	385	11	1	4	0	0	0	0	; 
 	107	87	600	100	2.333333	1	4	0	0	0	0	; 
 	108	107	600	74	2	1	4	0	0	0	0	; 
 	108	385	600	124	3.666667	1	4	0	0	0	0	; 
 	109	90	2400	83	2	1	4	0	0	0	0	; 
 	110	118	900	106	3.666667	1	4	0	0	0	0	; 
 	111	110	900	150	5.333333	1	4	0	0	0	0	; 
 	111	119	900	51	1.333333	1	4	0	0	0	0	; 
 	111	133	900	274	16	1	4	0	0	0	0	; 
 	111	396	900	291	8.666667	1	4	0	0	0	0	; 
 	112	12	999999	0	0	0	4	0	0	0	0	; 
 	112	113	900	178	4.333333	1	4	0	0	0	0	; 
 	113	42	600	44	1	1	4	0	0	0	0	; 
 	113	114	900	202	8.333333	1	4	0	0	0	0	; 
 	113	125	900	128	4	1	4	0	0	0	0	; 
 	114	12	999999	0	0	0	4	0	0	0	0	; 
 	114	120	900	53	2.333333	1	4	0	0	0	0	; 
 	114	121	900	51	1.333333	1	4	0	0	0	0	; 
 	115	41	600	40	1.333333	1	4	0	0	0	0	; 
 	115	113	600	191	6.666667	1	4	0	0	0	0	; 
 	115	116	600	172	6.666667	1	4	0	0	0	0	; 
 	116	118	600	235	13.666667	1	4	0	0	0	0	; 
 	117	103	900	38	2.333333	1	4	0	0	0	0	; 
 	117	115	600	477	17	1	4	0	0	0	0	; 
 	117	118	900	256	6.666667	1	4	0	0	0	0	; 
 	118	111	900	256	11.666667	1	4	0	0	0	0	; 
 	118	115	600	407	19	1	4	0	0	0	0	; 
 	118	117	900	256	11.333333	1	4	0	0	0	0	; 
 	119	120	900	156	6.666667	1	4	0	0	0	0	; 
 	120	12	999999	0	0	0	4	0	0	0	0	; 
 	120	111	900	207	15.666667	1	4	0	0	0	0	; 
 	120	126	900	61	1.666667	1	4	0	0	0	0	; 
 	121	12	999999	0	0	0	4	0	0	0	0	; 
 	121	126	900	22	0.666667	1	4	0	0	0	0	; 
 	122	123	900	147	4.333333	1	4	0	0	0	0	; 
 	122	129	2400	371	27.333333	1	4	0	0	0	0	; 
 	122	213	900	195	7	1	4	0	0	0	0	; 
 	122	350	2400	374	10.666667	1	4	0	0	0	0	; 
 	123	132	900	43	1.333333	1	4	0	0	0	0	; 
 	124	125	900	87	5.333333	1	4	0	0	0	0	; 
 	125	113	900	128	6.333333	1	4	0	0	0	0	; 
 	125	122	900	299	21.333333	1	4	0	0	0	0	; 
 	126	127	900	24	2	1	4	0	0	0	0	; 
 	127	124	900	93	3.333333	1	4	0	0	0	0	; 
 	128	14	999999	0	0	0	4	0	0	0	0	; 
 	128	129	2400	165	11	1	4	0	0	0	0	; 
 	129	14	999999	0	0	0	4	0	0	0	0	; 
 	129	111	900	348	14	1	4	0	0	0	0	; 
 	129	122	2400	371	12.666667	1	4	0	0	0	0	; 
 	129	130	600	100	3	1	4	0	0	0	0	; 
 	129	152	2400	417	15.666667	1	4	0	0	0	0	; 
 	130	14	999999	0	0	0	4	0	0	0	0	; 
 	130	129	600	100	2.333333	1	4	0	0	0	0	; 
 	130	206	600	136	4.666667	1	4	0	0	0	0	; 
 	131	45	2800	54	8	1	4	0	0	0	0	; 
 	131	368	2400	22	1	1	4	0	0	0	0	; 
 	132	125	900	109	3.333333	1	4	0	0	0	0	; 
 	133	14	999999	0	0	0	4	0	0	0	0	; 
 	133	129	900	74	5.666667	1	4	0	0	0	0	; 
 	134	30	999999	0	0	0	4	0	0	0	0	; 
 	134	386	2800	10	0.333333	1	4	0	0	0	0	; 
 	135	117	900	75	9	1	4	0	0	0	0	; 
 	135	136	900	102	2.666667	1	4	0	0	0	0	; 
 	135	137	900	31	0.666667	1	4	0	0	0	0	; 
 	136	135	900	102	3	1	4	0	0	0	0	; 
 	136	137	900	87	2.333333	1	4	0	0	0	0	; 
 	137	135	900	31	0.666667	1	4	0	0	0	0	; 
 	137	136	900	87	2.333333	1	4	0	0	0	0	; 
 	138	139	600	105	4	1	4	0	0	0	0	; 
 	139	140	2800	421	16.333333	1	4	0	0	0	0	; 
 	140	10	999999	0	0	0	4	0	0	0	0	; 
 	140	144	600	103	5.333333	1	4	0	0	0	0	; 
 	140	271	2800	247	8	1	4	0	0	0	0	; 
 	140	274	600	18	1.333333	1	4	0	0	0	1.616849387	; 
 	141	234	900	73	8.333333	1	4	0	0	0	0	; 
 	141	293	900	104	5.333333	1	4	0	0	0	0	; 
 	142	10	999999	0	0	0	4	0	0	0	0	; 
 	143	318	2400	29	1	1	4	0	0	0	0	; 
 	143	334	900	324	8	1	4	0	0	0	0	; 
 	144	10	999999	0	0	0	4	0	0	0	0	; 
 	144	142	600	309	12	1	4	0	0	0	0	; 
 	145	234	600	153	3.666667	1	4	0	0	0	0	; 
 	146	10	999999	0	0	0	4	0	0	0	0	; 
 	146	140	600	289	16.666667	1	4	0	0	0	0	; 
 	147	35	999999	0	0	0	4	0	0	0	0	; 
 	147	149	2400	25	0.666667	1	4	0	0	0	0	; 
 	148	35	999999	0	0	0	4	0	0	0	0	; 
 	148	149	2400	74	2	1	4	0	0	0	0	; 
 	149	35	999999	0	0	0	4	0	0	0	0	; 
 	149	147	2400	25	0.666667	1	4	0	0	0	0	; 
 	149	153	2400	363	19.333333	1	4	0	0	0	0	; 
 	150	35	999999	0	0	0	4	0	0	0	2.370421909	; 
 	150	147	2400	356	21.333333	1	4	0	0	0	0.917772314	; 
 	150	153	2400	16	0.666667	1	4	0	0	0	0	; 
 	151	150	2400	19	0.333333	1	4	0	0	0	2.25379884	; 
 	151	207	2400	218	9.333333	1	4	0	0	0	0	; 
 	152	150	2400	95	12	1	4	0	0	0	0	; 
 	153	178	2400	19	1	1	4	0	0	0	0	; 
 	153	192	2400	99	2.666667	1	4	0	0	0	0	; 
 	154	30	999999	0	0	0	4	0	0	0	0	; 
 	154	155	2400	160	4	1	4	0	0	0	0	; 
 	155	29	999999	0	0	0	4	0	0	0	0	; 
 	155	48	2400	250	19.666667	1	4	0	0	0	0	; 
 	156	29	999999	0	0	0	4	0	0	0	0	; 
 	156	30	999999	0	0	0	4	0	0	0	0	; 
 	156	387	2400	124	2.666667	1	4	0	0	0	0	; 
 	157	29	999999	0	0	0	4	0	0	0	0	; 
 	157	156	2400	69	1.666667	1	4	0	0	0	0	; 
 	158	9	999999	0	0	0	4	0	0	0	0	; 
 	158	159	2800	154	4	1	4	0	0	0	0	; 
 	158	176	2800	33	1.666667	1	4	0	0	0	0	; 
 	159	160	2800	126	7	1	4	0	0	0	0	; 
 	160	49	2800	88	10.666667	1	4	0	0	0	0	; 
 	162	181	2800	41	3.666667	1	4	0	0	0	0	; 
 	162	187	2400	55	1.666667	1	4	0	0	0	0	; 
 	163	54	2800	105	13	1	4	0	0	0	0	; 
 	163	171	900	7	0.333333	1	4	0	0	0	0	; 
 	164	167	600	156	4	1	4	0	0	0	0	; 
 	165	15	999999	0	0	0	4	0	0	0	0	; 
 	165	175	2400	138	3.666667	1	4	0	0	0	0	; 
 	166	13	999999	0	0	0	4	0	0	0	0.26619724	; 
 	166	167	600	101	2.666667	1	4	0	0	0	0	; 
 	167	163	900	138	3.666667	1	4	0	0	0	0	; 
 	167	170	900	185	4.333333	1	4	0	0	0	0	; 
 	168	9	999999	0	0	0	4	0	0	0	0	; 
 	168	169	2800	161	6.333333	1	4	0	0	0	0	; 
 	168	185	2800	34	1	1	4	0	0	0	0	; 
 	169	181	2400	32	0.666667	1	4	0	0	0	0	; 
 	169	225	2800	37	1.333333	1	4	0	0	0	0	; 
 	170	167	900	185	5	1	4	0	0	0	0	; 
 	170	174	600	141	6.666667	1	4	0	0	0	0	; 
 	170	195	900	94	2.333333	1	4	0	0	0	0	; 
 	171	167	900	131	4	1	4	0	0	0	0	; 
 	172	173	600	54	4	1	4	0	0	0	0	; 
 	173	61	600	194	5	1	4	0	0	0	0	; 
 	173	170	600	219	5.333333	1	4	0	0	0	0	; 
 	174	173	600	78	4	1	4	0	0	0	0	; 
 	175	15	999999	0	0	0	4	0	0	0	0	; 
 	175	177	2400	53	1.333333	1	4	0	0	0	0	; 
 	176	9	999999	0	0	0	4	0	0	0	0	; 
 	176	168	2800	40	1	1	4	0	0	0	0	; 
 	176	367	2800	69	1.666667	1	4	0	0	0	0	; 
 	177	15	999999	0	0	0	4	0	0	0	0	; 
 	177	179	2400	108	5.333333	1	4	0	0	0	0	; 
 	178	151	2400	15	1.333333	1	4	0	0	0	0	; 
 	178	170	900	198	5	1	4	0	0	0	0	; 
 	179	178	2800	87	7.333333	1	4	0	0	0	0	; 
 	180	185	2800	144	12.666667	1	4	0	0	0	0	; 
 	181	180	2800	31	2.666667	1	4	0	0	0	0	; 
 	181	187	2400	49	1.333333	1	4	0	0	0	0	; 
 	182	180	2400	107	8.666667	1	4	0	0	0	0	; 
 	183	161	2800	24	1	1	4	0	0	0	0	; 
 	183	184	2800	27	1	1	4	0	0	0	0	; 
 	184	188	2800	344	7.666667	1	4	0	0	0	0	; 
 	185	158	2800	38	3.333333	1	4	0	0	0	0	; 
 	185	189	2800	60	1.666667	1	4	0	0	0	0	; 
 	186	161	600	44	1.333333	1	4	0	0	0	0	; 
 	186	184	2800	60	1.666667	1	4	0	0	0	0	; 
 	187	190	2400	49	1	1	4	0	0	0	0	; 
 	188	158	2800	62	7.666667	1	4	0	0	0	0	; 
 	188	189	2800	39	1	1	4	0	0	0	0	; 
 	189	183	2800	350	9.666667	1	4	0	0	0	0	; 
 	190	165	2400	95	2.333333	1	4	0	0	0	2.8936211	; 
 	191	15	999999	0	0	0	4	0	0	0	0	; 
 	191	182	2400	239	6.666667	1	4	0	0	0	0	; 
 	192	191	2400	172	4.666667	1	4	0	0	0	0	; 
 	193	194	2400	157	10.333333	1	4	0	0	0	0	; 
 	194	204	2400	10	0.333333	1	4	0	0	0	0	; 
 	195	151	900	105	15	1	4	0	0	0	0	; 
 	196	6	999999	0	0	0	4	0	0	0	0	; 
 	196	223	2400	231	11	1	4	0	0	0	0	; 
 	197	194	900	48	6	1	4	0	0	0	0	; 
 	198	200	2400	39	1	1	4	0	0	0	0	; 
 	198	363	900	90	3	1	4	0	0	0	0	; 
 	199	67	2400	281	14	1	4	0	0	0	0	; 
 	200	199	2400	112	2.666667	1	4	0	0	0	0	; 
 	201	13	999999	0	0	0	4	0	0	0	0	; 
 	201	203	600	206	5	1	4	0	0	0	0	; 
 	202	51	2400	67	11.666667	1	4	0	0	0	0	; 
 	203	13	999999	0	0	0	4	0	0	0	0	; 
 	203	206	600	366	9	1	4	0	0	0	0	; 
 	203	210	900	180	4.666667	1	4	0	0	0	0	; 
 	203	398	900	71	2.333333	1	4	0	0	0	0	; 
 	204	198	2400	19	1	1	4	0	0	0	0	; 
 	204	233	2400	22	0.666667	1	4	0	0	0	0	; 
 	205	130	600	52	1.333333	1	4	0	0	0	0	; 
 	206	201	600	160	7	1	4	0	0	0	0	; 
 	206	211	600	63	1.666667	1	4	0	0	0	0	; 
 	207	128	2400	136	6	1	4	0	0	0	0	; 
 	208	209	2800	97	2.666667	1	4	0	0	0	0	; 
 	209	176	2800	154	13.666667	1	4	0	0	0	0	; 
 	210	28	999999	0	0	0	4	0	0	0	0.478245609	; 
 	210	203	900	180	9	1	4	0	0	0	0	; 
 	210	214	600	156	4	1	4	0	0	0	0	; 
 	210	215	900	77	2	1	4	0	0	0	0	; 
 	211	205	600	30	0.666667	1	4	0	0	0	0	; 
 	212	208	2800	33	0.666667	1	4	0	0	0	0	; 
 	212	216	2800	84	2.333333	1	4	0	0	0	0	; 
 	213	28	999999	0	0	0	4	0	0	0	0	; 
 	213	210	900	200	7.333333	1	4	0	0	0	0	; 
 	214	28	999999	0	0	0	4	0	0	0	0	; 
 	215	28	999999	0	0	0	4	0	0	0	0	; 
 	215	122	900	318	8	1	4	0	0	0	0	; 
 	216	62	2800	545	13.333333	1	4	0	0	0	0	; 
 	217	20	999999	0	0	0	4	0	0	0	0	; 
 	217	218	900	119	4.333333	1	4	0	0	0	0	; 
 	218	217	900	119	5.666667	1	4	0	0	0	0	; 
 	218	219	900	42	1	1	4	0	0	0	0	; 
 	219	220	900	90	2.333333	1	4	0	0	0	0	; 
 	220	20	999999	0	0	0	4	0	0	0	0	; 
 	220	219	900	90	2.333333	1	4	0	0	0	0	; 
 	220	221	900	53	1.333333	1	4	0	0	0	0	; 
 	221	20	999999	0	0	0	4	0	0	0	0	; 
 	221	217	900	113	11	1	4	0	0	0	0	; 
 	221	220	900	53	1.333333	1	4	0	0	0	0	; 
 	221	290	900	300	21.333333	1	4	0	0	0	0	; 
 	222	23	999999	0	0	0	4	0	0	0	0	; 
 	222	224	2400	125	4.333333	1	4	0	0	0	0	; 
 	222	239	600	20	0.333333	1	4	0	0	0	0	; 
 	223	6	999999	0	0	0	4	0	0	0	0	; 
 	223	202	2400	358	15.666667	1	4	0	0	0	0	; 
 	223	237	2400	390	11	1	4	0	0	0	0	; 
 	223	295	2400	25	1.666667	1	4	0	0	0	0	; 
 	224	23	999999	0	0	0	4	0	0	0	2.35166364	; 
 	224	198	2400	175	13	1	4	0	0	0	0	; 
 	225	56	2800	254	7.333333	1	4	0	0	0	0	; 
 	226	4	999999	0	0	0	4	0	0	0	0	; 
 	226	23	999999	0	0	0	4	0	0	0	0	; 
 	226	228	900	339	21.333333	1	4	0	0	0	0	; 
 	226	232	900	154	9	1	4	0	0	0	0	; 
 	227	77	2800	200	9	1	4	0	0	0	0	; 
 	228	22	999999	0	0	0	4	0	0	0	0	; 
 	228	231	900	233	7.666667	1	4	0	0	0	0	; 
 	228	286	2800	81	14.666667	1	4	0	0	0	0	; 
 	229	82	900	43	1.333333	1	4	0	0	0	0.376714753	; 
 	229	242	900	203	10	1	4	0	0	0	0	; 
 	230	226	900	222	11.333333	1	4	0	0	0	0	; 
 	230	296	900	252	16	1	4	0	0	0	0	; 
 	231	4	999999	0	0	0	4	0	0	0	0	; 
 	231	23	999999	0	0	0	4	0	0	0	0	; 
 	231	226	900	106	9.666667	1	4	0	0	0	0	; 
 	232	4	999999	0	0	0	4	0	0	0	0	; 
 	232	226	900	154	16.333333	1	4	0	0	0	0	; 
 	232	230	900	225	14.666667	1	4	0	0	0	0	; 
 	232	263	900	118	9.666667	1	4	0	0	0	0	; 
 	233	235	2400	84	2	1	4	0	0	0	0	; 
 	234	141	900	73	6	1	4	0	0	0	0	; 
 	234	263	2800	41	4.666667	1	4	0	0	0	0	; 
 	235	236	2400	61	1.333333	1	4	0	0	0	0	; 
 	236	239	2400	132	4.333333	1	4	0	0	0	0	; 
 	237	298	2400	45	1.666667	1	4	0	0	0	0	; 
 	238	20	999999	0	0	0	4	0	0	0	0	; 
 	239	222	600	20	0.333333	1	4	0	0	0	0	; 
 	239	238	600	102	3.666667	1	4	0	0	0	0	; 
 	239	288	2800	284	23	1	4	0	0	0	0	; 
 	240	32	999999	0	0	0	4	0	0	0	0	; 
 	240	36	999999	0	0	0	4	0	0	0	0	; 
 	240	355	900	113	3.333333	1	4	0	0	0	0	; 
 	241	16	999999	0	0	0	4	0	0	0	0	; 
 	241	18	999999	0	0	0	4	0	0	0	0	; 
 	241	75	900	73	1.666667	1	4	0	0	0	0	; 
 	242	229	900	203	5.666667	1	4	0	0	0	0	; 
 	242	240	900	173	9	1	4	0	0	0	0	; 
 	242	247	2400	320	11.333333	1	4	0	0	0	2.231079799	; 
 	242	270	2400	255	8.666667	1	4	0	0	0	0	; 
 	243	72	900	58	2	1	4	0	0	0	0	; 
 	243	80	900	66	4.333333	1	4	0	0	0	0	; 
 	243	245	900	105	3.333333	1	4	0	0	0	0	; 
 	244	32	999999	0	0	0	4	0	0	0	0	; 
 	244	354	900	113	3	1	4	0	0	0	0	; 
 	244	376	900	293	9.333333	1	4	0	0	0	0	; 
 	245	70	900	77	2.666667	1	4	0	0	0	0	; 
 	245	243	900	105	2.666667	1	4	0	0	0	0	; 
 	246	16	999999	0	0	0	4	0	0	0	0	; 
 	246	241	900	32	0.666667	1	4	0	0	0	0	; 
 	247	36	999999	0	0	0	4	0	0	0	0	; 
 	247	242	2400	320	30.666667	1	4	0	0	0	0	; 
 	247	267	2400	459	20.333333	1	4	0	0	0	0	; 
 	247	269	600	186	4.666667	1	4	0	0	0	0	; 
 	248	257	2400	187	4	1	4	0	0	0	0	; 
 	249	102	900	224	10.333333	1	4	0	0	0	0	; 
 	250	397	900	57	2.333333	1	4	0	0	0	0	; 
 	251	17	999999	0	0	0	4	0	0	0	0	; 
 	251	80	900	172	13.333333	1	4	0	0	0	0	; 
 	252	248	2400	208	4.333333	1	4	0	0	0	0	; 
 	253	2	999999	0	0	0	4	0	0	0	0	; 
 	253	81	900	409	28.333333	1	4	0	0	0	0	; 
 	253	258	600	174	6	1	4	0	0	0	0	; 
 	253	272	900	66	2.666667	1	4	0	0	0	0	; 
 	253	353	900	384	21	1	4	0	0	0	0	; 
 	254	5	999999	0	0	0	4	0	0	0	1.329587146	; 
 	254	253	900	165	8.666667	1	4	0	0	0	0	; 
 	255	2	999999	0	0	0	4	0	0	0	0	; 
 	255	5	999999	0	0	0	4	0	0	0	0	; 
 	255	253	900	221	13.333333	1	4	0	0	0	0	; 
 	256	2	999999	0	0	0	4	0	0	0	0	; 
 	256	272	900	93	8.333333	1	4	0	0	0	0	; 
 	256	397	900	102	3.666667	1	4	0	0	0	0	; 
 	257	81	2400	324	6.666667	1	4	0	0	0	0	; 
 	258	3	999999	0	0	0	4	0	0	0	0	; 
 	258	253	600	174	12	1	4	0	0	0	0	; 
 	258	259	600	109	4	1	4	0	0	0	0	; 
 	259	3	999999	0	0	0	4	0	0	0	0	; 
 	259	260	600	60	2.666667	1	4	0	0	0	0	; 
 	260	3	999999	0	0	0	4	0	0	0	0	; 
 	260	262	600	70	3	1	4	0	0	0	0.234874784	; 
 	261	3	999999	0	0	0	4	0	0	0	0	; 
 	261	258	600	241	9.666667	1	4	0	0	0	0	; 
 	261	262	600	32	0.666667	1	4	0	0	0	2.448840956	; 
 	262	145	600	261	6.666667	1	4	0	0	0	0	; 
 	262	261	600	32	0.666667	1	4	0	0	0	0	; 
 	263	4	999999	0	0	0	4	0	0	0	0	; 
 	263	232	900	118	7.666667	1	4	0	0	0	0	; 
 	263	265	600	46	3.666667	1	4	0	0	0	0	; 
 	264	6	999999	0	0	0	4	0	0	0	0	; 
 	264	295	900	178	12.666667	1	4	0	0	0	0	; 
 	265	261	600	210	10.666667	1	4	0	0	0	0	; 
 	266	31	999999	0	0	0	4	0	0	0	0	; 
 	266	269	600	123	3	1	4	0	0	0	0	; 
 	267	31	999999	0	0	0	4	0	0	0	0	; 
 	267	33	999999	0	0	0	4	0	0	0	0	; 
 	267	40	2400	167	5.333333	1	4	0	0	0	0	; 
 	268	31	999999	0	0	0	4	0	0	0	0	; 
 	268	33	999999	0	0	0	4	0	0	0	0	; 
 	268	36	999999	0	0	0	4	0	0	0	0	; 
 	268	247	2400	202	7.333333	1	4	0	0	0	0	; 
 	269	31	999999	0	0	0	4	0	0	0	0	; 
 	269	247	600	186	4.666667	1	4	0	0	0	0	; 
 	270	17	999999	0	0	0	4	0	0	0	0	; 
 	270	32	999999	0	0	0	4	0	0	0	0	; 
 	270	79	2400	208	24	1	4	0	0	0	1.785777969	; 
 	271	277	2800	205	5.666667	1	4	0	0	0	0	; 
 	271	282	600	16	0.333333	1	4	0	0	0	0	; 
 	272	2	999999	0	0	0	4	0	0	0	0	; 
 	272	253	900	66	6	1	4	0	0	0	0	; 
 	272	256	900	93	4.333333	1	4	0	0	0	0	; 
 	273	17	999999	0	0	0	4	0	0	0	0	; 
 	273	242	2400	178	21	1	4	0	0	0	0	; 
 	274	140	600	18	0.666667	1	4	0	0	0	0	; 
 	274	227	2800	82	3	1	4	0	0	0	0	; 
 	275	11	999999	0	0	0	4	0	0	0	0	; 
 	275	65	2800	183	19	1	4	0	0	0	0	; 
 	276	27	999999	0	0	0	4	0	0	0	0	; 
 	276	280	600	25	2.333333	1	4	0	0	0	0	; 
 	277	63	2800	211	10	1	4	0	0	0	0	; 
 	278	109	2400	113	3.333333	1	4	0	0	0	0	; 
 	279	11	999999	0	0	0	4	0	0	0	0	; 
 	279	275	900	162	4.333333	1	4	0	0	0	0	; 
 	279	276	600	294	7	1	4	0	0	0	0	; 
 	280	27	999999	0	0	0	4	0	0	0	0	; 
 	280	78	600	85	2.333333	1	4	0	0	0	0	; 
 	280	283	600	205	5.333333	1	4	0	0	0	0	; 
 	281	284	2400	141	7.666667	1	4	0	0	0	0	; 
 	282	271	600	16	0.333333	1	4	0	0	0	0	; 
 	282	274	2800	240	14.333333	1	4	0	0	0	0	; 
 	283	11	999999	0	0	0	4	0	0	0	0	; 
 	283	279	900	114	2.666667	1	4	0	0	0	0	; 
 	284	223	2400	328	18	1	4	0	0	0	0	; 
 	285	22	999999	0	0	0	4	0	0	0	0	; 
 	285	286	2800	40	7	1	4	0	0	0	0	; 
 	285	287	2800	218	9	1	4	0	0	0	0	; 
 	286	22	999999	0	0	0	4	0	0	0	0	; 
 	286	222	2800	276	8.666667	1	4	0	0	0	0	; 
 	286	228	900	81	2.666667	1	4	0	0	0	0	; 
 	286	288	2800	12	0.666667	1	4	0	0	0	0	; 
 	287	19	999999	0	0	0	4	0	0	0	0	; 
 	287	22	999999	0	0	0	4	0	0	0	0	; 
 	287	285	2800	218	12.333333	1	4	0	0	0	0	; 
 	287	353	2400	367	13.666667	1	4	0	0	0	0	; 
 	288	285	2400	37	1.666667	1	4	0	0	0	0	; 
 	288	286	2800	12	0.666667	1	4	0	0	0	0	; 
 	288	290	2400	363	20.333333	1	4	0	0	0	0	; 
 	289	288	2800	252	23	1	4	0	0	0	0	; 
 	290	221	900	300	12.333333	1	4	0	0	0	0	; 
 	290	289	2400	111	5.333333	1	4	0	0	0	0	; 
 	290	312	2400	261	10.666667	1	4	0	0	0	0	; 
 	290	377	900	197	8.666667	1	4	0	0	0	0	; 
 	291	19	999999	0	0	0	4	0	0	0	0	; 
 	291	287	600	70	1.666667	1	4	0	0	0	0	; 
 	292	19	999999	0	0	0	4	0	0	0	0	; 
 	292	287	2400	131	4.666667	1	4	0	0	0	0	; 
 	293	141	900	104	5.333333	1	4	0	0	0	0	; 
 	293	264	900	105	7.666667	1	4	0	0	0	0	; 
 	294	295	2800	351	14	1	4	0	0	0	0	; 
 	295	6	999999	0	0	0	4	0	0	0	0	; 
 	295	223	2400	25	1	1	4	0	0	0	0	; 
 	295	278	2400	539	24.333333	1	4	0	0	0	0	; 
 	295	293	900	283	10	1	4	0	0	0	0	; 
 	296	297	900	134	5.666667	1	4	0	0	0	0	; 
 	296	300	2800	131	14.666667	1	4	0	0	0	0	; 
 	296	360	900	39	1	1	4	0	0	0	0	; 
 	297	230	900	118	8.666667	1	4	0	0	0	0	; 
 	298	301	2800	198	10	1	4	0	0	0	0	; 
 	299	302	2400	196	11	1	4	0	0	0	0	; 
 	300	294	2400	271	10.666667	1	4	0	0	0	0	; 
 	300	301	2800	26	2	1	4	0	0	0	0	; 
 	301	299	2800	75	2.333333	1	4	0	0	0	0	; 
 	301	358	2800	28	1	1	4	0	0	0	0	; 
 	302	168	2800	69	4.666667	1	4	0	0	0	0	; 
 	302	367	2400	37	0.666667	1	4	0	0	0	0	; 
 	303	1	999999	0	0	0	4	0	0	0	0	; 
 	303	304	600	100	2.333333	1	4	0	0	0	0	; 
 	304	1	999999	0	0	0	4	0	0	0	0	; 
 	304	307	600	43	1	1	4	0	0	0	0	; 
 	304	308	600	192	4.666667	1	4	0	0	0	0	; 
 	304	310	600	164	4	1	4	0	0	0	0	; 
 	305	312	600	97	2.333333	1	4	0	0	0	0	; 
 	306	1	999999	0	0	0	4	0	0	0	0	; 
 	306	303	600	179	4.333333	1	4	0	0	0	0	; 
 	307	1	999999	0	0	0	4	0	0	0	0	; 
 	307	311	600	114	3	1	4	0	0	0	0	; 
 	308	305	600	180	4.666667	1	4	0	0	0	0	; 
 	309	310	600	176	4.333333	1	4	0	0	0	0	; 
 	310	304	600	164	4	1	4	0	0	0	0	; 
 	310	311	600	387	9.666667	1	4	0	0	0	0	; 
 	310	313	600	191	4.666667	1	4	0	0	0	0	; 
 	311	304	600	157	4	1	4	0	0	0	0	; 
 	311	309	600	211	5.333333	1	4	0	0	0	0	; 
 	312	21	999999	0	0	0	4	0	0	0	0	; 
 	312	290	2400	261	16	1	4	0	0	0	0	; 
 	312	306	600	190	4.666667	1	4	0	0	0	0	; 
 	312	375	2400	234	8	1	4	0	0	0	0	; 
 	313	375	600	226	5.666667	1	4	0	0	0	0	; 
 	314	139	2800	128	4.333333	1	4	0	0	0	0	; 
 	314	315	2800	168	10.333333	1	4	0	0	0	0	; 
 	314	319	2400	104	2.666667	1	4	0	0	0	0	; 
 	314	320	2400	96	4.666667	1	4	0	0	0	0	; 
 	315	25	999999	0	0	0	4	0	0	0	0	; 
 	315	314	2800	168	8.333333	1	4	0	0	0	0	; 
 	315	316	600	107	4	1	4	0	0	0	0	; 
 	315	321	600	103	4	1	4	0	0	0	0	; 
 	315	331	2800	219	22.666667	1	4	0	0	0	0	; 
 	316	315	600	107	2.666667	1	4	0	0	0	0	; 
 	316	319	600	117	4	1	4	0	0	0	0	; 
 	316	326	600	121	3	1	4	0	0	0	0	; 
 	317	16	999999	0	0	0	4	0	0	0	0	; 
 	317	24	999999	0	0	0	4	0	0	0	1.625133706	; 
 	317	383	900	153	3.666667	1	4	0	0	0	0	; 
 	318	143	2400	29	0.666667	1	4	0	0	0	0	; 
 	318	319	2400	161	13.333333	1	4	0	0	0	0	; 
 	318	326	600	86	2	1	4	0	0	0	0	; 
 	319	138	600	128	6	1	4	0	0	0	0	; 
 	319	314	2400	104	6	1	4	0	0	0	0	; 
 	319	318	2400	161	4	1	4	0	0	0	0	; 
 	320	314	2400	96	5	1	4	0	0	0	0	; 
 	320	339	2400	190	9.333333	1	4	0	0	0	0	; 
 	321	341	600	98	4.666667	1	4	0	0	0	0	; 
 	322	336	900	83	2.666667	1	4	0	0	0	0	; 
 	323	327	2400	144	11	1	4	0	0	0	0	; 
 	323	345	2400	128	3.333333	1	4	0	0	0	0	; 
 	323	381	2400	29	1	1	4	0	0	0	0	; 
 	324	337	2800	64	2.333333	1	4	0	0	0	0	; 
 	325	322	900	154	7	1	4	0	0	0	0	; 
 	325	324	2800	129	8	1	4	0	0	0	0	; 
 	325	331	2800	520	25	1	4	0	0	0	0	; 
 	326	316	600	121	3	1	4	0	0	0	0	; 
 	326	318	600	86	2	1	4	0	0	0	0.684176844	; 
 	327	26	999999	0	0	0	4	0	0	0	0	; 
 	327	323	2400	144	12.333333	1	4	0	0	0	0	; 
 	327	328	900	47	1.333333	1	4	0	0	0	0	; 
 	327	332	2400	422	15.666667	1	4	0	0	0	0	; 
 	327	346	600	203	7.333333	1	4	0	0	0	0	; 
 	328	26	999999	0	0	0	4	0	0	0	0	; 
 	329	330	900	17	0.333333	1	4	0	0	0	0	; 
 	330	329	900	17	1.333333	1	4	0	0	0	0	; 
 	330	333	900	109	4.666667	1	4	0	0	0	0	; 
 	330	334	900	436	11	1	4	0	0	0	0	; 
 	331	25	999999	0	0	0	4	0	0	0	0	; 
 	331	315	2800	219	11.333333	1	4	0	0	0	1.460761096	; 
 	331	325	2800	520	41	1	4	0	0	0	0	; 
 	331	327	2400	599	28.666667	1	4	0	0	0	0	; 
 	331	334	900	298	13.333333	1	4	0	0	0	0	; 
 	332	25	999999	0	0	0	4	0	0	0	0	; 
 	332	26	999999	0	0	0	4	0	0	0	0	; 
 	332	331	2400	177	18.333333	1	4	0	0	0	0	; 
 	333	325	900	236	16.666667	1	4	0	0	0	0	; 