<NUMBER OF ZONES> 2
<TOTAL OD FLOW> 30
<END OF METADATA>


Origin 	1 
    1 :      0.0;     2 :    15.0;        

Origin 	2 
    1 :    15.0;     2 :      .00;    


